egret/models/tests/pglib_opf_case3_lmbd_acopf_1020.json
{"elements": {"bus": {"1": {"matpower_bustype": "ref", "area": 1.0, "vm": 1.1, "va": 0.0, "base_kv": 240.0, "zone": 1.0, "v_min": 0.9, "v_max": 1.1, "lmp": 38.82590312494353, "qlmp": 6.394537290236442e-11, "pl": 112.20000000000002, "ql": 40.8}, "2": {"matpower_bustype": "PV", "area": 1.0, "vm": 0.9261705367334451, "va": 0.11363160790891182, "base_kv": 240.0, "zone": 1.0, "v_min": 0.9, "v_max": 1.1, "lmp": 30.22472100330797, "qlmp": -9.319544229649347e-12, "pl": 112.20000000000002, "ql": 40.8}, "3": {"matpower_bustype": "PV", "area": 1.0, "vm": 0.9, "va": -0.3144265789132518, "base_kv": 240.0, "zone": 1.0, "v_min": 0.9, "v_max": 1.1, "lmp": 47.93586755288717, "qlmp": -4.034490115441099e-12, "pl": 96.9, "ql": 51.0}}, "load": {"load_1": {"in_service": true, "p_load": 112.20000000000002, "q_load": 40.8, "bus": "1"}, "load_2": {"in_service": true, "p_load": 112.20000000000002, "q_load": 40.8, "bus": "2"}, "load_3": {"in_service": true, "p_load": 96.9, "q_load": 51.0, "bus": "3"}}, "generator": {"1": {"bus": "1", "pg": 153.75410512869172, "qg": 55.67111168162812, "vg": 1.0, "mbase": 100.0, "in_service": true, "p_min": 0.0, "p_max": 2000.0, "q_min": -1000.0, "q_max": 1000.0, "generator_type": "thermal", "p_cost": {"data_type": "cost_curve", "cost_curve_type": "polynomial", "values": {"0": 0.0, "1": 5.0, "2": 0.11}}, "startup_cost": 0.0, "shutdown_cost": 0.0}, "2": {"bus": "2", "pg": 170.73365297821195, "qg": -8.099611459393868, "vg": 1.0, "mbase": 100.0, "in_service": true, "p_min": 0.0, "p_max": 2000.0, "q_min": -1000.0, "q_max": 1000.0, "generator_type": "thermal", "p_cost": {"data_type": "cost_curve", "cost_curve_type": "polynomial", "values": {"0": 0.0, "1": 1.2, "2": 0.08500000000000002}}, "startup_cost": 0.0, "shutdown_cost": 0.0}, "3": {"bus": "3", "pg": 0.0, "qg": -3.0115144414299095, "vg": 1.0, "mbase": 100.0, "in_service": true, "p_min": 0.0, "p_max": 0.0, "q_min": -1000.0, "q_max": 1000.0, "generator_type": "thermal", "p_cost": {"data_type": "cost_curve", "cost_curve_type": "polynomial", "values": {"0": 0.0, "1": 0.0, "2": 0.0}}, "startup_cost": 0.0, "shutdown_cost": 0.0}}, "branch": {"1": {"from_bus": "1", "to_bus": "3", "resistance": 0.065, "reactance": 0.62, "charging_susceptance": 0.45, "branch_type": "line", "rating_long_term": 9000.0, "rating_short_term": 9000.0, "rating_emergency": 9000.0, "in_service": true, "angle_diff_min": -30.0, "angle_diff_max": 30.0, "pf": 53.338179974303046, "qf": 10.495332025147242, "pt": -51.045568267269594, "qt": -34.07734332275448, "pfl": 2.292611707033454, "qfl": -23.58201129760724, "pf_dual": 3882.5903124944953, "qf_dual": 6.4239803660739206e-09}, "2": {"from_bus": "3", "to_bus": "2", "resistance": 0.025, "reactance": 0.75, "charging_susceptance": 0.7, "branch_type": "line", "rating_long_term": 50.0, "rating_short_term": 50.0, "rating_emergency": 50.0, "in_service": true, "angle_diff_min": -30.0, "angle_diff_max": 30.0, "pf": -45.85443173273042, "qf": -19.934171118675426, "pt": 46.52525121393361, "qt": -18.31395908868996, "pfl": 0.6708194812031887, "qfl": -38.248130207365385, "pf_dual": 4346.899118314195, "qf_dual": -194.18728446708923}, "3": {"from_bus": "1", "to_bus": "2", "resistance": 0.042, "reactance": 0.9, "charging_susceptance": 0.3, "branch_type": "line", "rating_long_term": 9000.0, "rating_short_term": 9000.0, "rating_emergency": 9000.0, "in_service": true, "angle_diff_min": -30.0, "angle_diff_max": 30.0, "pf": -11.784074845611327, "qf": 4.375779656480881, "pt": 12.008401764278332, "qt": -30.585652370703908, "pfl": 0.22432691866700605, "qfl": -26.209872714223025, "pf_dual": 3882.5903124943206, "qf_dual": 6.407106250871217e-09}}}, "system": {"model_name": "pglib_opf_case3_lmbd", "mpc_version": "'2'", "baseMVA": 100.0, "reference_bus": "1", "reference_bus_angle": 0.0, "total_cost": 6051.8349640882225, "ploss": 3.1877581069036487, "qloss": -88.04001421919565, "mult": 1.02}, "results": {"time": 0.020100116729736328, "#_cons": 36, "#_vars": 23, "termination": "optimal"}}